BF3
APtclcactv07311817213D 0   0.00000     0.00000
 
  4  3  0  0  0  0  0  0  0  0999 V2000
   -1.1865    0.6850    0.0003 F   0  0  0  0  0  0  0  0  0  0  0  0
   -0.0000    0.0000   -0.0016 B   0  0  0  0  0  0  0  0  0  0  0  0
    1.1865    0.6850    0.0003 F   0  0  0  0  0  0  0  0  0  0  0  0
    0.0000   -1.3700    0.0003 F   0  0  0  0  0  0  0  0  0  0  0  0
  1  2  1  0  0  0  0
  2  3  1  0  0  0  0
  2  4  1  0  0  0  0
M  END
$$$$
